// SPDX-License-Identifier: GPL-3.0-or-later
// Copyright (C) 2026 Joern Ihlenburg
FoamFile
{
    version     2.0;
    format      ascii;
    class       dictionary;
    object      transportProperties;
}

nu              0.01;
